# Packages
 &PACKAGES
 useDiagnostics=.TRUE.,
 useRBCS=.TRUE.,
 useTides=.TRUE.,
 &
